*SPEF "ieee 1481-1999"
*DESIGN "iiitb_sd_fsm"
*DATE "11:11:11 Fri 11 11, 1111"
*VENDOR "OpenRCX"
*PROGRAM "Parallel Extraction"
*VERSION "1.0"
*DESIGN_FLOW "NAME_SCOPE LOCAL" "PIN_CAP NONE"
*DIVIDER /
*DELIMITER :
*BUS_DELIMITER []
*T_UNIT 1 NS
*C_UNIT 1 PF
*R_UNIT 1 OHM
*L_UNIT 1 HENRY

*NAME_MAP
*1 clock
*2 detector_out
*3 reset
*4 sequence_in
*7 _00_
*8 _01_
*9 _02_
*10 _03_
*11 _04_
*12 _05_
*13 _06_
*14 _07_
*15 _08_
*16 _09_
*17 current_state\[0\]
*18 current_state\[1\]
*19 current_state\[2\]
*20 net1
*21 net2
*22 net3
*23 net4
*24 next_state\[0\]
*25 next_state\[1\]
*26 next_state\[2\]
*27 ANTENNA_input1_A
*28 ANTENNA_input2_A
*29 ANTENNA_input3_A
*30 FILLER_0_12
*31 FILLER_0_24
*32 FILLER_0_29
*33 FILLER_0_41
*34 FILLER_0_53
*35 FILLER_0_57
*36 FILLER_0_6
*37 FILLER_0_65
*38 FILLER_0_70
*39 FILLER_0_77
*40 FILLER_1_15
*41 FILLER_1_3
*42 FILLER_1_34
*43 FILLER_1_46
*44 FILLER_1_54
*45 FILLER_1_57
*46 FILLER_1_69
*47 FILLER_2_15
*48 FILLER_2_27
*49 FILLER_2_29
*50 FILLER_2_3
*51 FILLER_2_55
*52 FILLER_2_67
*53 FILLER_2_79
*54 FILLER_3_15
*55 FILLER_3_23
*56 FILLER_3_27
*57 FILLER_3_3
*58 FILLER_3_39
*59 FILLER_3_47
*60 FILLER_3_52
*61 FILLER_3_64
*62 FILLER_3_76
*63 FILLER_3_80
*64 FILLER_4_15
*65 FILLER_4_24
*66 FILLER_4_3
*67 FILLER_4_36
*68 FILLER_4_44
*69 FILLER_4_51
*70 FILLER_4_75
*71 FILLER_5_15
*72 FILLER_5_24
*73 FILLER_5_3
*74 FILLER_5_35
*75 FILLER_5_42
*76 FILLER_5_54
*77 FILLER_5_57
*78 FILLER_5_65
*79 FILLER_5_70
*80 FILLER_5_78
*81 FILLER_6_15
*82 FILLER_6_27
*83 FILLER_6_29
*84 FILLER_6_3
*85 FILLER_6_55
*86 FILLER_6_62
*87 FILLER_6_74
*88 FILLER_6_80
*89 FILLER_7_15
*90 FILLER_7_27
*91 FILLER_7_3
*92 FILLER_7_39
*93 FILLER_7_51
*94 FILLER_7_55
*95 FILLER_7_57
*96 FILLER_7_69
*97 FILLER_8_15
*98 FILLER_8_27
*99 FILLER_8_29
*100 FILLER_8_3
*101 FILLER_8_41
*102 FILLER_8_53
*103 FILLER_8_65
*104 FILLER_8_73
*105 FILLER_8_77
*106 FILLER_9_19
*107 FILLER_9_27
*108 FILLER_9_29
*109 FILLER_9_41
*110 FILLER_9_53
*111 FILLER_9_57
*112 FILLER_9_65
*113 FILLER_9_7
*114 FILLER_9_77
*115 PHY_0
*116 PHY_1
*117 PHY_10
*118 PHY_11
*119 PHY_12
*120 PHY_13
*121 PHY_14
*122 PHY_15
*123 PHY_16
*124 PHY_17
*125 PHY_18
*126 PHY_19
*127 PHY_2
*128 PHY_3
*129 PHY_4
*130 PHY_5
*131 PHY_6
*132 PHY_7
*133 PHY_8
*134 PHY_9
*135 TAP_20
*136 TAP_21
*137 TAP_22
*138 TAP_23
*139 TAP_24
*140 TAP_25
*141 TAP_26
*142 TAP_27
*143 TAP_28
*144 TAP_29
*145 TAP_30
*146 TAP_31
*147 _10_
*148 _11_
*149 _12_
*150 _13_
*151 _14_
*152 _15_
*153 _16_
*154 _17_
*155 _18_
*156 _19_
*157 _20_
*158 _21_
*159 _22_
*160 _23_
*161 _24_
*162 _25_
*163 _26_
*164 input1
*165 input2
*166 input3
*167 output4

*PORTS
clock I
detector_out O
reset I
sequence_in I

*D_NET *1 0.00145984
*CONN
*P clock I
*I *27:DIODE I *D sky130_fd_sc_hd__diode_2
*I *164:A I *D sky130_fd_sc_hd__clkbuf_1
*CAP
1 clock 0.000589169
2 *27:DIODE 0.00014075
3 *164:A 0
4 *1:8 0.00072992
5 *27:DIODE *20:8 0
*RES
1 clock *1:8 22.7857 
2 *1:8 *164:A 9.3 
3 *1:8 *27:DIODE 12.3 
*END

*D_NET *2 0.00126432
*CONN
*P detector_out O
*I *167:X O *D sky130_fd_sc_hd__buf_2
*CAP
1 detector_out 0.000632162
2 *167:X 0.000632162
*RES
1 *167:X detector_out 33.1036 
*END

*D_NET *3 0.00170961
*CONN
*P reset I
*I *28:DIODE I *D sky130_fd_sc_hd__diode_2
*I *165:A I *D sky130_fd_sc_hd__dlymetal6s2s_1
*CAP
1 reset 0.000768408
2 *28:DIODE 0
3 *165:A 8.63967e-05
4 *3:8 0.000854805
5 *165:A *21:8 0
*RES
1 reset *3:8 27.25 
2 *3:8 *165:A 29.55 
3 *3:8 *28:DIODE 9.3 
*END

*D_NET *4 0.00183391
*CONN
*P sequence_in I
*I *166:A I *D sky130_fd_sc_hd__clkbuf_1
*I *29:DIODE I *D sky130_fd_sc_hd__diode_2
*CAP
1 sequence_in 0.000773208
2 *166:A 0
3 *29:DIODE 0.000143745
4 *4:13 0.000916953
5 *29:DIODE *22:15 0
*RES
1 sequence_in *4:13 45.375 
2 *4:13 *29:DIODE 12.3 
3 *4:13 *166:A 9.3 
*END

*D_NET *7 0.000149206
*CONN
*I *161:RESET_B I *D sky130_fd_sc_hd__dfrtp_1
*I *158:Y O *D sky130_fd_sc_hd__inv_2
*CAP
1 *161:RESET_B 7.46029e-05
2 *158:Y 7.46029e-05
*RES
1 *158:Y *161:RESET_B 29.2464 
*END

*D_NET *8 0.000360219
*CONN
*I *162:RESET_B I *D sky130_fd_sc_hd__dfrtp_1
*I *159:Y O *D sky130_fd_sc_hd__inv_2
*CAP
1 *162:RESET_B 0.000180109
2 *159:Y 0.000180109
3 *162:RESET_B *18:10 0
*RES
1 *159:Y *162:RESET_B 13.0589 
*END

*D_NET *9 0.000224131
*CONN
*I *163:RESET_B I *D sky130_fd_sc_hd__dfrtp_1
*I *160:Y O *D sky130_fd_sc_hd__inv_2
*CAP
1 *163:RESET_B 0.000112065
2 *160:Y 0.000112065
3 *163:RESET_B *158:A 0
*RES
1 *160:Y *163:RESET_B 30.0857 
*END

*D_NET *10 0.000905209
*CONN
*I *148:A I *D sky130_fd_sc_hd__clkbuf_1
*I *147:X O *D sky130_fd_sc_hd__and3_1
*CAP
1 *148:A 0.000452605
2 *147:X 0.000452605
3 *148:A *147:A 0
4 *148:A *147:B 0
5 *148:A *153:B_N 0
6 *148:A *155:A1 0
7 *148:A *155:B1 0
8 *148:A *162:CLK 0
9 *148:A *19:22 0
10 *148:A *23:5 0
*RES
1 *147:X *148:A 46.4929 
*END

*D_NET *11 0.000466042
*CONN
*I *150:B I *D sky130_fd_sc_hd__xor2_1
*I *149:X O *D sky130_fd_sc_hd__o21ba_1
*CAP
1 *150:B 0.000233021
2 *149:X 0.000233021
3 *150:B *150:A 0
4 *150:B *161:D 0
*RES
1 *149:X *150:B 42.3321 
*END

*D_NET *12 0.00117521
*CONN
*I *155:A1 I *D sky130_fd_sc_hd__a22o_1
*I *154:A2 I *D sky130_fd_sc_hd__o21ai_1
*I *151:Y O *D sky130_fd_sc_hd__inv_2
*CAP
1 *155:A1 0.000169115
2 *154:A2 0.000282357
3 *151:Y 0.000136134
4 *12:8 0.000587605
5 *154:A2 *147:A 0
6 *154:A2 *147:C 0
7 *154:A2 *152:C_N 0
8 *154:A2 *154:B1 0
9 *154:A2 *17:18 0
10 *154:A2 *18:36 0
11 *155:A1 *155:A2 0
12 *155:A1 *155:B2 0
13 *12:8 *151:A 0
14 *148:A *155:A1 0
*RES
1 *151:Y *12:8 21.4071 
2 *12:8 *154:A2 24.1929 
3 *12:8 *155:A1 22.4071 
*END

*D_NET *13 0.000635908
*CONN
*I *153:B_N I *D sky130_fd_sc_hd__or2b_1
*I *152:X O *D sky130_fd_sc_hd__or3b_1
*CAP
1 *153:B_N 0.000317954
2 *152:X 0.000317954
3 *153:B_N *155:A2 0
4 *153:B_N *23:5 0
5 *148:A *153:B_N 0
*RES
1 *152:X *153:B_N 43.4393 
*END

*D_NET *14 0.000407278
*CONN
*I *155:A2 I *D sky130_fd_sc_hd__a22o_1
*I *153:X O *D sky130_fd_sc_hd__or2b_1
*CAP
1 *155:A2 0.000203639
2 *153:X 0.000203639
3 *155:A2 *23:5 0
4 *153:B_N *155:A2 0
5 *155:A1 *155:A2 0
*RES
1 *153:X *155:A2 22.85 
*END

*D_NET *15 0.000629698
*CONN
*I *155:B1 I *D sky130_fd_sc_hd__a22o_1
*I *154:Y O *D sky130_fd_sc_hd__o21ai_1
*CAP
1 *155:B1 0.000314849
2 *154:Y 0.000314849
3 *155:B1 *162:CLK 0
4 *155:B1 *162:D 0
5 *155:B1 *19:19 0
6 *155:B1 *23:5 0
7 *148:A *155:B1 0
*RES
1 *154:Y *155:B1 43.6179 
*END

*D_NET *16 0.000492375
*CONN
*I *157:A I *D sky130_fd_sc_hd__clkbuf_1
*I *156:X O *D sky130_fd_sc_hd__and3b_1
*CAP
1 *157:A 0.000246187
2 *156:X 0.000246187
3 *157:A *163:CLK 0
4 *157:A *17:17 0
5 *157:A *22:21 0
*RES
1 *156:X *157:A 42.0643 
*END

*D_NET *17 0.00240723
*CONN
*I *156:A_N I *D sky130_fd_sc_hd__and3b_1
*I *154:B1 I *D sky130_fd_sc_hd__o21ai_1
*I *152:C_N I *D sky130_fd_sc_hd__or3b_1
*I *147:A I *D sky130_fd_sc_hd__and3_1
*I *149:A1 I *D sky130_fd_sc_hd__o21ba_1
*I *161:Q O *D sky130_fd_sc_hd__dfrtp_1
*CAP
1 *156:A_N 0.000231502
2 *154:B1 4.23535e-05
3 *152:C_N 2.0535e-05
4 *147:A 0.00035594
5 *149:A1 0
6 *161:Q 0
7 *17:18 0.000438508
8 *17:17 0.00020004
9 *17:8 0.000491253
10 *17:4 0.000627101
11 *147:A *147:C 0
12 *147:A *18:36 0
13 *147:A *19:19 0
14 *154:B1 *19:19 0
15 *156:A_N *163:CLK 0
16 *17:8 *162:CLK 0
17 *17:8 *163:CLK 0
18 *17:17 *162:CLK 0
19 *17:18 *19:19 0
20 *148:A *147:A 0
21 *154:A2 *147:A 0
22 *154:A2 *152:C_N 0
23 *154:A2 *154:B1 0
24 *154:A2 *17:18 0
25 *157:A *17:17 0
*RES
1 *161:Q *17:4 9.3 
2 *17:4 *17:8 17.6429 
3 *17:8 *149:A1 18.3 
4 *17:8 *17:17 11.5536 
5 *17:17 *17:18 1.35714 
6 *17:18 *147:A 16.7286 
7 *17:18 *152:C_N 9.72857 
8 *17:17 *154:B1 10.2464 
9 *17:4 *156:A_N 32.4607 
*END

*D_NET *18 0.00327504
*CONN
*I *152:A I *D sky130_fd_sc_hd__or3b_1
*I *155:B2 I *D sky130_fd_sc_hd__a22o_1
*I *147:B I *D sky130_fd_sc_hd__and3_1
*I *150:A I *D sky130_fd_sc_hd__xor2_1
*I *156:B I *D sky130_fd_sc_hd__and3b_1
*I *162:Q O *D sky130_fd_sc_hd__dfrtp_1
*CAP
1 *152:A 0
2 *155:B2 8.66538e-05
3 *147:B 0.000158641
4 *150:A 0.000231821
5 *156:B 0
6 *162:Q 0.000388878
7 *18:36 0.000351087
8 *18:32 0.00021665
9 *18:17 0.000897553
10 *18:10 0.000943752
11 *150:A *151:A 0
12 *150:A *161:D 0
13 *150:A *162:CLK 0
14 *150:A *20:8 0
15 *18:10 *158:A 0
16 *18:10 *21:10 0
17 *18:10 *22:15 0
18 *18:17 *151:A 0
19 *18:17 *158:A 0
20 *18:17 *22:21 0
21 *18:36 *147:C 0
22 *147:A *18:36 0
23 *148:A *147:B 0
24 *150:B *150:A 0
25 *154:A2 *18:36 0
26 *155:A1 *155:B2 0
27 *162:RESET_B *18:10 0
*RES
1 *162:Q *18:10 36.8893 
2 *18:10 *156:B 9.3 
3 *18:10 *18:17 11.6429 
4 *18:17 *150:A 33.0321 
5 *18:17 *18:32 20.8571 
6 *18:32 *18:36 11.3482 
7 *18:36 *147:B 22.0054 
8 *18:36 *155:B2 20.7018 
9 *18:32 *152:A 9.3 
*END

*D_NET *19 0.00248743
*CONN
*I *152:B I *D sky130_fd_sc_hd__or3b_1
*I *147:C I *D sky130_fd_sc_hd__and3_1
*I *149:B1_N I *D sky130_fd_sc_hd__o21ba_1
*I *154:A1 I *D sky130_fd_sc_hd__o21ai_1
*I *163:Q O *D sky130_fd_sc_hd__dfrtp_1
*CAP
1 *152:B 0
2 *147:C 0.000236581
3 *149:B1_N 6.3049e-05
4 *154:A1 2.0535e-05
5 *163:Q 0.000614553
6 *19:22 0.000360279
7 *19:19 0.000308995
8 *19:5 0.000883434
9 *19:5 *163:D 0
10 *147:A *147:C 0
11 *147:A *19:19 0
12 *148:A *19:22 0
13 *154:A2 *147:C 0
14 *154:B1 *19:19 0
15 *155:B1 *19:19 0
16 *17:18 *19:19 0
17 *18:36 *147:C 0
*RES
1 *163:Q *19:5 22.1571 
2 *19:5 *154:A1 9.72857 
3 *19:5 *19:19 5.21429 
4 *19:19 *19:22 10.6429 
5 *19:22 *149:B1_N 19.9429 
6 *19:22 *147:C 23.2375 
7 *19:19 *152:B 9.3 
*END

*D_NET *20 0.00345988
*CONN
*I *162:CLK I *D sky130_fd_sc_hd__dfrtp_1
*I *163:CLK I *D sky130_fd_sc_hd__dfrtp_1
*I *161:CLK I *D sky130_fd_sc_hd__dfrtp_1
*I *164:X O *D sky130_fd_sc_hd__clkbuf_1
*CAP
1 *162:CLK 0.000377746
2 *163:CLK 0.00059954
3 *161:CLK 0
4 *164:X 0.000752657
5 *20:10 0.00059954
6 *20:8 0.0011304
7 *162:CLK *162:D 0
8 *163:CLK *161:D 0
9 *27:DIODE *20:8 0
10 *148:A *162:CLK 0
11 *150:A *162:CLK 0
12 *150:A *20:8 0
13 *155:B1 *162:CLK 0
14 *156:A_N *163:CLK 0
15 *157:A *163:CLK 0
16 *17:8 *162:CLK 0
17 *17:8 *163:CLK 0
18 *17:17 *162:CLK 0
*RES
1 *164:X *20:8 34.8179 
2 *20:8 *20:10 9 
3 *20:10 *161:CLK 9.3 
4 *20:10 *163:CLK 40.7464 
5 *20:8 *162:CLK 28.1393 
*END

*D_NET *21 0.00234301
*CONN
*I *159:A I *D sky130_fd_sc_hd__inv_2
*I *160:A I *D sky130_fd_sc_hd__inv_2
*I *158:A I *D sky130_fd_sc_hd__inv_2
*I *165:X O *D sky130_fd_sc_hd__dlymetal6s2s_1
*CAP
1 *159:A 0.000163425
2 *160:A 0
3 *158:A 0.000554817
4 *165:X 0.000369267
5 *21:10 0.000638813
6 *21:8 0.000616689
7 *158:A *22:21 0
8 *163:RESET_B *158:A 0
9 *165:A *21:8 0
10 *18:10 *158:A 0
11 *18:10 *21:10 0
12 *18:17 *158:A 0
*RES
1 *165:X *21:8 27.4786 
2 *21:8 *21:10 2.25 
3 *21:10 *158:A 31.05 
4 *21:10 *160:A 18.3 
5 *21:8 *159:A 21.7107 
*END

*D_NET *22 0.00262575
*CONN
*I *156:C I *D sky130_fd_sc_hd__and3b_1
*I *149:A2 I *D sky130_fd_sc_hd__o21ba_1
*I *151:A I *D sky130_fd_sc_hd__inv_2
*I *166:X O *D sky130_fd_sc_hd__clkbuf_1
*CAP
1 *156:C 0
2 *149:A2 2.0535e-05
3 *151:A 0.000226313
4 *166:X 0.00057233
5 *22:21 0.000740544
6 *22:15 0.00106603
7 *29:DIODE *22:15 0
8 *150:A *151:A 0
9 *157:A *22:21 0
10 *158:A *22:21 0
11 *12:8 *151:A 0
12 *18:10 *22:15 0
13 *18:17 *151:A 0
14 *18:17 *22:21 0
*RES
1 *166:X *22:15 41.0679 
2 *22:15 *22:21 10.4286 
3 *22:21 *151:A 13.9607 
4 *22:21 *149:A2 9.72857 
5 *22:15 *156:C 9.3 
*END

*D_NET *23 0.00214238
*CONN
*I *153:A I *D sky130_fd_sc_hd__or2b_1
*I *167:A I *D sky130_fd_sc_hd__buf_2
*I *148:X O *D sky130_fd_sc_hd__clkbuf_1
*CAP
1 *153:A 0
2 *167:A 0.000674606
3 *148:X 0.000396583
4 *23:5 0.00107119
5 *148:A *23:5 0
6 *153:B_N *23:5 0
7 *155:A2 *23:5 0
8 *155:B1 *23:5 0
*RES
1 *148:X *23:5 17.6393 
2 *23:5 *167:A 43.5143 
3 *23:5 *153:A 9.3 
*END

*D_NET *24 0.000381463
*CONN
*I *161:D I *D sky130_fd_sc_hd__dfrtp_1
*I *150:X O *D sky130_fd_sc_hd__xor2_1
*CAP
1 *161:D 0.000190732
2 *150:X 0.000190732
3 *150:A *161:D 0
4 *150:B *161:D 0
5 *163:CLK *161:D 0
*RES
1 *150:X *161:D 41.0286 
*END

*D_NET *25 0.000272267
*CONN
*I *162:D I *D sky130_fd_sc_hd__dfrtp_1
*I *155:X O *D sky130_fd_sc_hd__a22o_1
*CAP
1 *162:D 0.000136134
2 *155:X 0.000136134
3 *155:B1 *162:D 0
4 *162:CLK *162:D 0
*RES
1 *155:X *162:D 39.7071 
*END

*D_NET *26 0.000367919
*CONN
*I *163:D I *D sky130_fd_sc_hd__dfrtp_1
*I *157:X O *D sky130_fd_sc_hd__clkbuf_1
*CAP
1 *163:D 0.00018396
2 *157:X 0.00018396
3 *19:5 *163:D 0
*RES
1 *157:X *163:D 22.4393 
*END
